Version 4
SHEET 1 1424 996
WIRE 672 192 640 192
WIRE 784 208 752 208
WIRE 320 224 320 192
WIRE 352 224 352 192
WIRE 400 224 400 192
WIRE 432 224 432 192
WIRE 672 224 640 224
WIRE 784 224 784 208
WIRE 0 256 0 240
WIRE 112 256 112 240
WIRE 336 320 336 304
WIRE 528 320 336 320
WIRE 784 320 784 304
WIRE 0 352 0 336
WIRE 112 352 112 336
WIRE 416 352 416 304
WIRE 528 352 416 352
WIRE 336 368 336 320
WIRE 416 368 416 352
WIRE 672 368 640 368
WIRE 784 368 752 368
WIRE 784 384 784 368
WIRE 336 464 336 448
WIRE 416 464 416 448
WIRE 784 480 784 464
FLAG 0 352 0
FLAG 0 240 a
FLAG 112 352 0
FLAG 112 240 b
FLAG 320 192 a
FLAG 352 192 b
FLAG 400 192 a
FLAG 432 192 b
FLAG 416 464 0
FLAG 336 464 0
FLAG 528 320 x
FLAG 528 352 y
FLAG 640 192 a
FLAG 640 224 b
FLAG 640 368 a
FLAG 784 320 0
FLAG 784 480 0
FLAG 784 208 u
FLAG 784 368 w
SYMBOL voltage 0 240 R0
SYMATTR InstName V1
SYMATTR Value 5
SYMBOL voltage 112 240 R0
SYMATTR InstName V3
SYMATTR Value 2
SYMBOL dpdt 416 256 R0
SYMATTR InstName U1
SYMBOL res 320 352 R0
SYMATTR InstName R1
SYMATTR Value 1
SYMBOL res 400 352 R0
SYMATTR InstName R2
SYMATTR Value 1
SYMBOL spdt 704 208 M0
SYMATTR InstName U2
SYMATTR Value SET=0
SYMBOL spst 720 368 R0
SYMATTR InstName U3
SYMBOL res 768 368 R0
SYMATTR InstName R3
SYMATTR Value 1
SYMBOL res 768 208 R0
SYMATTR InstName R4
SYMATTR Value 1
TEXT 16 152 Left 0 !.tran 1
TEXT 160 136 Left 0 ;Use SET=0 or SET=1
